.include "C:\Users\Esmond\Desktop\50002\nominal.jsim" 
.include "C:\Users\Esmond\Desktop\50002\lab1checkoff.jsim"

.subckt F A B C Z
MPD1 3 A 2 0 NENH sw=8 sl=1 
MPD2 2 B 0 0 NENH sw=8 sl=1 
MPD3 3 C 0 0 NENH sw=8 sl=1
MPU1 1 A vdd vdd PENH sw=8 sl=1 
MPU2 1 B vdd vdd PENH sw=8 sl=1 
MPU3 3 C 1 vdd PENH sw=8 sl=1
MPD4 Z 3 0 0 NENH sw=16 sl=1 
MPU4 Z 3 vdd vdd PENH sw=16 sl=1 
.ends
